Version 4
SHEET 1 880 692
WIRE -480 -80 -672 -80
WIRE -400 -80 -480 -80
WIRE -256 -80 -400 -80
WIRE -64 -80 -256 -80
WIRE 192 -80 32 -80
WIRE 288 -80 192 -80
WIRE 768 -80 768 -112
WIRE 768 -80 288 -80
WIRE -256 -32 -256 -80
WIRE -96 0 -144 0
WIRE -480 48 -480 -80
WIRE -400 48 -400 -80
WIRE -144 64 -144 0
WIRE -256 80 -256 48
WIRE -176 80 -256 80
WIRE -256 96 -256 80
WIRE 16 96 16 -32
WIRE 16 96 -112 96
WIRE -176 112 -192 112
WIRE -192 160 -192 112
WIRE 192 160 192 -80
WIRE 192 160 -192 160
WIRE -480 192 -480 112
WIRE -400 192 -400 112
WIRE -400 192 -480 192
WIRE -256 192 -256 176
WIRE -256 192 -400 192
WIRE -144 192 -144 128
WIRE -144 192 -256 192
WIRE -144 224 -144 192
WIRE -480 288 -672 288
WIRE -400 288 -480 288
WIRE -256 288 -400 288
WIRE -64 288 -256 288
WIRE 192 288 32 288
WIRE 288 288 288 -80
WIRE 288 288 192 288
WIRE -256 352 -256 288
WIRE -864 384 -864 304
WIRE -768 384 -768 304
WIRE -96 384 -144 384
WIRE -480 432 -480 288
WIRE -400 432 -400 288
WIRE -144 448 -144 384
WIRE -256 464 -256 432
WIRE -176 464 -256 464
WIRE -256 480 -256 464
WIRE 16 480 16 336
WIRE 16 480 -112 480
WIRE -176 496 -192 496
WIRE -864 528 -864 464
WIRE -768 528 -768 464
WIRE -480 592 -480 496
WIRE -400 592 -400 496
WIRE -400 592 -480 592
WIRE -256 592 -256 560
WIRE -256 592 -400 592
WIRE -144 592 -144 512
WIRE -144 592 -256 592
WIRE -192 608 -192 496
WIRE 192 608 192 288
WIRE 192 608 -192 608
WIRE -144 672 -144 592
FLAG -864 528 0
FLAG -864 304 VIN
FLAG 768 -112 VCC
FLAG -144 224 0
FLAG -144 672 0
FLAG -96 0 VCC
FLAG -96 384 VCC
FLAG -768 528 0
FLAG -768 304 VUSB
FLAG -672 -80 VIN
FLAG -672 288 VUSB
SYMBOL SBORKA\\MOS\\FDN304p -64 -32 R270
SYMATTR InstName U1
SYMBOL voltage -864 368 R0
WINDOW 123 0 0 Left 2
WINDOW 39 0 0 Left 2
SYMATTR InstName V1
SYMATTR Value 5
SYMBOL cap -496 48 R0
SYMATTR InstName C1
SYMATTR Value 10µ
SYMBOL EXTRA\\ExtraOpamps\\LM358_NS -144 96 R0
SYMATTR InstName U2
SYMBOL EXTRA\\ExtraOpamps\\LM358_NS -144 480 R0
SYMATTR InstName U3
SYMBOL SBORKA\\MOS\\FDN304p -64 336 R270
SYMATTR InstName U4
SYMBOL res -240 -48 M0
SYMATTR InstName R1
SYMATTR Value 10k
SYMBOL res -240 80 M0
SYMATTR InstName R2
SYMATTR Value 1MEG
SYMBOL res -240 336 M0
SYMATTR InstName R3
SYMATTR Value 10k
SYMBOL res -240 464 M0
SYMATTR InstName R4
SYMATTR Value 1MEG
SYMBOL cap -416 48 R0
SYMATTR InstName C2
SYMATTR Value 1µ
SYMBOL cap -496 432 R0
SYMATTR InstName C3
SYMATTR Value 10µ
SYMBOL cap -416 432 R0
SYMATTR InstName C4
SYMATTR Value 1µ
SYMBOL voltage -768 368 R0
WINDOW 123 0 0 Left 2
WINDOW 39 0 0 Left 2
SYMATTR InstName V2
SYMATTR Value 0
TEXT -64 -112 Left 2 ;FDN340P
TEXT -64 256 Left 2 ;FDN340P
